[Format]      =  4.0
[Frequency]   =  0
[Precision]   =  1.0000000000000001e-009
[MinAngle]    =  5
[Depth]       =  220
[LengthUnits] =  meters
[ProblemType] =  planar
[Coordinates] =  cartesian
[ACSolver]    =  0
[Comment]     =  "Add comments here."
[PointProps]   = 0
[BdryProps]   = 0
[BlockProps]  = 5
  <BeginBlock>
    <BlockName> = "Air"
    <Mu_x> = 1
    <Mu_y> = 1
    <H_c> = 0
    <H_cAngle> = 0
    <J_re> = 0
    <J_im> = 0
    <Sigma> = 0
    <d_lam> = 0
    <Phi_h> = 0
    <Phi_hx> = 0
    <Phi_hy> = 0
    <LamType> = 0
    <LamFill> = 1
    <NStrands> = 0
    <WireD> = 0
    <BHPoints> = 0
  <EndBlock>
  <BeginBlock>
    <BlockName> = "Copper"
    <Mu_x> = 1
    <Mu_y> = 1
    <H_c> = 0
    <H_cAngle> = 0
    <J_re> = 0
    <J_im> = 0
    <Sigma> = 58
    <d_lam> = 0
    <Phi_h> = 0
    <Phi_hx> = 0
    <Phi_hy> = 0
    <LamType> = 0
    <LamFill> = 1
    <NStrands> = 0
    <WireD> = 0
    <BHPoints> = 0
  <EndBlock>
  <BeginBlock>
    <BlockName> = "M-27 Steel"
    <Mu_x> = 12138
    <Mu_y> = 12138
    <H_c> = 0
    <H_cAngle> = 0
    <J_re> = 0
    <J_im> = 0
    <Sigma> = 2
    <d_lam> = 0.63500000000000012
    <Phi_h> = 0
    <Phi_hx> = 0
    <Phi_hy> = 0
    <LamType> = 0
    <LamFill> = 0.97999999999999998
    <NStrands> = 0
    <WireD> = 0
    <BHPoints> = 47
      0	0
      0.050000000000000003	17.059828000000003
      0.10000000000000002	25.634971000000007
      0.15000000000000002	31.338353999999999
      0.20000000000000001	35.778997000000011
      0.25	39.602124000000003
      0.3000000000000001	43.123143000000013
      0.35000000000000003	46.520439000000003
      0.40000000000000002	49.908177000000002
      0.45000000000000001	53.368283999999996
      0.5	56.966318000000008
      0.55000000000000004	60.760271000000003
      0.59999999999999998	64.806105000000002
      0.65000000000000013	69.161803000000006
      0.70000000000000007	73.890922000000003
      0.75000000000000011	79.066315000000003
      0.80000000000000004	84.774675999999999
      0.85000000000000009	91.122721999999968
      0.90000000000000002	98.246298999999993
      0.95000000000000007	106.324591
      1	115.60341699999998
      1.05	126.43512400000002
      1.1000000000000001	139.34975899999998
      1.1499999999999997	155.187082
      1.2	175.35053800000003
      1.25	202.31201700000003
      1.3	240.64045499999997
      1.3500000000000001	299.11802699999993
      1.3999999999999997	394.99338599999993
      1.45	561.72617700000001
      1.5	859.32876299999998
      1.55	1375.4668880000002
      1.6000000000000001	2191.2469139999998
      1.6499999999999997	3328.145908
      1.7000000000000002	4760.5061720000003
      1.7500000000000002	6535.3394490000001
      1.8	8788.970656999998
      1.8500000000000001	11670.804346999999
      1.8999999999999997	15385.186211
      1.95	20246.553030999996
      2	26995.131141000002
      2.0499999999999998	38724.496369
      2.1000000000000001	64917.284463000004
      2.1499999999999999	101489.30933800002
      2.2000000000000002	137202.82896099996
      2.25	176835.706764
      2.2999999999999998	216374.28360900001
  <EndBlock>
  <BeginBlock>
    <BlockName> = "NdFeB 37 MGOe"
    <Mu_x> = 1.048
    <Mu_y> = 1.048
    <H_c> = 950000
    <H_cAngle> = 0
    <J_re> = 0
    <J_im> = 0
    <Sigma> = 0.66700000000000015
    <d_lam> = 0
    <Phi_h> = 0
    <Phi_hx> = 0
    <Phi_hy> = 0
    <LamType> = 0
    <LamFill> = 1
    <NStrands> = 0
    <WireD> = 0
    <BHPoints> = 0
  <EndBlock>
  <BeginBlock>
    <BlockName> = "1006 Steel"
    <Mu_x> = 1404
    <Mu_y> = 1404
    <H_c> = 0
    <H_cAngle> = 0
    <J_re> = 0
    <J_im> = 0
    <Sigma> = 0
    <d_lam> = 0
    <Phi_h> = 0
    <Phi_hx> = 0
    <Phi_hy> = 0
    <LamType> = 0
    <LamFill> = 1
    <NStrands> = 0
    <WireD> = 0
    <BHPoints> = 14
      0	0
      0.040000000000000001	23.873249999999995
      0.080000000000000002	39.788750000000007
      0.28000000000000008	79.577500000000001
      0.59999999999999998	119.36620000000002
      0.88	175.07049999999998
      1.2	286.47899999999987
      1.52	795.77500000000009
      1.6799999999999997	3183.0999999999999
      1.8	7957.75
      1.9199999999999995	15915.5
      2.0800000000000001	31831
      2.1640009999999998	56177.410000000003
      2.2000000000000002	79577.5
  <EndBlock>
[CircuitProps]  = 0
[NumPoints] = 0
[NumSegments] = 0
[NumArcSegments] = 0
[NumHoles] = 0
[NumBlockLabels] = 0
