[Format]      =  4.0
[Frequency]   =  0
[Precision]   =  1.0000000000000001e-009
[MinAngle]    =  30
[DoSmartMesh] =  1
[Depth]       =  37.099638114772084
[LengthUnits] =  millimeters
[ProblemType] =  planar
[Coordinates] =  cartesian
[ACSolver]    =  0
[PrevType]    =  0
[PrevSoln]    =  ""
[Comment]     =  "Add comments here."
[PointProps]   = 0
[BdryProps]   = 1
  <BeginBdry>
    <BdryName> = "A=0"
    <BdryType> = 0
    <A_0> = 0
    <A_1> = 0
    <A_2> = 0
    <Phi> = 0
    <c0> = 0
    <c0i> = 0
    <c1> = 0
    <c1i> = 0
    <Mu_ssd> = 0
    <Sigma_ssd> = 0
    <innerangle> = 0
    <outerangle> = 0
  <EndBdry>
[BlockProps]  = 5
  <BeginBlock>
    <BlockName> = "Air"
    <Mu_x> = 1
    <Mu_y> = 1
    <H_c> = 0
    <H_cAngle> = 0
    <J_re> = 0
    <J_im> = 0
    <Sigma> = 0
    <d_lam> = 0
    <Phi_h> = 0
    <Phi_hx> = 0
    <Phi_hy> = 0
    <LamType> = 0
    <LamFill> = 1
    <NStrands> = 0
    <WireD> = 0
    <BHPoints> = 0
  <EndBlock>
  <BeginBlock>
    <BlockName> = "Copper"
    <Mu_x> = 1
    <Mu_y> = 1
    <H_c> = 0
    <H_cAngle> = 0
    <J_re> = 0
    <J_im> = 0
    <Sigma> = 58
    <d_lam> = 0
    <Phi_h> = 0
    <Phi_hx> = 0
    <Phi_hy> = 0
    <LamType> = 0
    <LamFill> = 1
    <NStrands> = 0
    <WireD> = 0
    <BHPoints> = 0
  <EndBlock>
  <BeginBlock>
    <BlockName> = "M-27 Steel"
    <Mu_x> = 12138
    <Mu_y> = 12138
    <H_c> = 0
    <H_cAngle> = 0
    <J_re> = 0
    <J_im> = 0
    <Sigma> = 2
    <d_lam> = 0.63500000000000012
    <Phi_h> = 0
    <Phi_hx> = 0
    <Phi_hy> = 0
    <LamType> = 0
    <LamFill> = 0.97999999999999998
    <NStrands> = 0
    <WireD> = 0
    <BHPoints> = 47
      0	0
      0.050000000000000003	17.059828000000003
      0.10000000000000002	25.634971000000007
      0.15000000000000002	31.338353999999999
      0.20000000000000001	35.778997000000011
      0.25	39.602124000000003
      0.3000000000000001	43.123143000000013
      0.35000000000000003	46.520439000000003
      0.40000000000000002	49.908177000000002
      0.45000000000000001	53.368283999999996
      0.5	56.966318000000008
      0.55000000000000004	60.760271000000003
      0.59999999999999998	64.806105000000002
      0.65000000000000013	69.161803000000006
      0.70000000000000007	73.890922000000003
      0.75000000000000011	79.066315000000003
      0.80000000000000004	84.774675999999999
      0.85000000000000009	91.122721999999968
      0.90000000000000002	98.246298999999993
      0.95000000000000007	106.324591
      1	115.60341699999998
      1.05	126.43512400000002
      1.1000000000000001	139.34975899999998
      1.1499999999999997	155.187082
      1.2	175.35053800000003
      1.25	202.31201700000003
      1.3	240.64045499999997
      1.3500000000000001	299.11802699999993
      1.3999999999999997	394.99338599999993
      1.45	561.72617700000001
      1.5	859.32876299999998
      1.55	1375.4668880000002
      1.6000000000000001	2191.2469139999998
      1.6499999999999997	3328.145908
      1.7000000000000002	4760.5061720000003
      1.7500000000000002	6535.3394490000001
      1.8	8788.970656999998
      1.8500000000000001	11670.804346999999
      1.8999999999999997	15385.186211
      1.95	20246.553030999996
      2	26995.131141000002
      2.0499999999999998	38724.496369
      2.1000000000000001	64917.284463000004
      2.1499999999999999	101489.30933800002
      2.2000000000000002	137202.82896099996
      2.25	176835.706764
      2.2999999999999998	216374.28360900001
  <EndBlock>
  <BeginBlock>
    <BlockName> = "NdFeB 37 MGOe"
    <Mu_x> = 1.048
    <Mu_y> = 1.048
    <H_c> = 950000
    <H_cAngle> = 0
    <J_re> = 0
    <J_im> = 0
    <Sigma> = 0.66700000000000015
    <d_lam> = 0
    <Phi_h> = 0
    <Phi_hx> = 0
    <Phi_hy> = 0
    <LamType> = 0
    <LamFill> = 1
    <NStrands> = 0
    <WireD> = 0
    <BHPoints> = 0
  <EndBlock>
  <BeginBlock>
    <BlockName> = "1006 Steel"
    <Mu_x> = 1404
    <Mu_y> = 1404
    <H_c> = 0
    <H_cAngle> = 0
    <J_re> = 0
    <J_im> = 0
    <Sigma> = 0
    <d_lam> = 0
    <Phi_h> = 0
    <Phi_hx> = 0
    <Phi_hy> = 0
    <LamType> = 0
    <LamFill> = 1
    <NStrands> = 0
    <WireD> = 0
    <BHPoints> = 14
      0	0
      0.040000000000000001	23.873249999999995
      0.080000000000000002	39.788750000000007
      0.28000000000000008	79.577500000000001
      0.59999999999999998	119.36620000000002
      0.88	175.07049999999998
      1.2	286.47899999999987
      1.52	795.77500000000009
      1.6799999999999997	3183.0999999999999
      1.8	7957.75
      1.9199999999999995	15915.5
      2.0800000000000001	31831
      2.1640009999999998	56177.410000000003
      2.2000000000000002	79577.5
  <EndBlock>
[CircuitProps]  = 2
  <BeginCircuit>
    <CircuitName> = "Ip"
    <TotalAmps_re> = 125
    <TotalAmps_im> = 0
    <CircuitType> = 1
  <EndCircuit>
  <BeginCircuit>
    <CircuitName> = "In"
    <TotalAmps_re> = -125
    <TotalAmps_im> = 0
    <CircuitType> = 1
  <EndCircuit>
[NumPoints] = 247
0	-41.089812959447478	0	1
41.089812959447478	0	0	1
0	41.089812959447478	0	1
0	-16.988605768951953	0	1
0	16.988605768951953	0	1
12.36654603825736	-4.6220597306945903	0	1
12.36654603825736	4.6220597306945903	0	1
21.790830475277144	4.6220597306945903	0	1
21.790830475277144	-4.6220597306945903	0	1
0	26.412890205971738	0	1
0	-26.412890205971738	0	1
21.790830475277144	26.412890205971738	0	1
12.36654603825736	16.988605768951953	0	1
21.790830475277144	-26.412890205971738	0	1
12.36654603825736	-16.988605768951953	0	1
11.86654603825736	15.592839853851817	0	1
11.86654603825736	16.488605768951953	0	1
0.5	15.592839853851817	0	1
0.5	16.488605768951953	0	1
11.86654603825736	14.447073938751682	0	1
11.86654603825736	15.342839853851817	0	1
0.5	14.447073938751682	0	1
0.5	15.342839853851817	0	1
11.86654603825736	13.301308023651547	0	1
11.86654603825736	14.197073938751682	0	1
0.5	13.301308023651547	0	1
0.5	14.197073938751682	0	1
11.86654603825736	12.155542108551412	0	1
11.86654603825736	13.051308023651547	0	1
0.5	12.155542108551412	0	1
0.5	13.051308023651547	0	1
11.86654603825736	11.009776193451277	0	1
11.86654603825736	11.905542108551412	0	1
0.5	11.009776193451277	0	1
0.5	11.905542108551412	0	1
11.86654603825736	9.8640102783511416	0	1
11.86654603825736	10.759776193451277	0	1
0.5	9.8640102783511416	0	1
0.5	10.759776193451277	0	1
11.86654603825736	8.7182443632510065	0	1
11.86654603825736	9.6140102783511416	0	1
0.5	8.7182443632510065	0	1
0.5	9.6140102783511416	0	1
11.86654603825736	7.5724784481508713	0	1
11.86654603825736	8.4682443632510065	0	1
0.5	7.5724784481508713	0	1
0.5	8.4682443632510065	0	1
11.86654603825736	6.4267125330507362	0	1
11.86654603825736	7.3224784481508713	0	1
0.5	6.4267125330507362	0	1
0.5	7.3224784481508713	0	1
11.86654603825736	5.2809466179506011	0	1
11.86654603825736	6.1767125330507362	0	1
0.5	5.2809466179506011	0	1
0.5	6.1767125330507362	0	1
11.86654603825736	4.1351807028504659	0	1
11.86654603825736	5.0309466179506011	0	1
0.5	4.1351807028504659	0	1
0.5	5.0309466179506011	0	1
11.86654603825736	2.9894147877503316	0	1
11.86654603825736	3.8851807028504659	0	1
0.5	2.9894147877503316	0	1
0.5	3.8851807028504659	0	1
11.86654603825736	1.8436488726501967	0	1
11.86654603825736	2.7394147877503312	0	1
0.5	1.8436488726501967	0	1
0.5	2.7394147877503312	0	1
11.86654603825736	0.69788295755006202	0	1
11.86654603825736	1.5936488726501967	0	1
0.5	0.69788295755006202	0	1
0.5	1.5936488726501967	0	1
11.86654603825736	-0.44788295755007262	0	1
11.86654603825736	0.44788295755006197	0	1
0.5	-0.44788295755007262	0	1
0.5	0.44788295755006197	0	1
11.86654603825736	-1.5936488726502074	0	1
11.86654603825736	-0.69788295755007268	0	1
0.5	-1.5936488726502074	0	1
0.5	-0.69788295755007268	0	1
11.86654603825736	-2.7394147877503419	0	1
11.86654603825736	-1.8436488726502074	0	1
0.5	-2.7394147877503419	0	1
0.5	-1.8436488726502074	0	1
11.86654603825736	-3.8851807028504766	0	1
11.86654603825736	-2.9894147877503423	0	1
0.5	-3.8851807028504766	0	1
0.5	-2.9894147877503423	0	1
11.86654603825736	-5.0309466179506117	0	1
11.86654603825736	-4.1351807028504766	0	1
0.5	-5.0309466179506117	0	1
0.5	-4.1351807028504766	0	1
11.86654603825736	-6.1767125330507469	0	1
11.86654603825736	-5.2809466179506117	0	1
0.5	-6.1767125330507469	0	1
0.5	-5.2809466179506117	0	1
11.86654603825736	-7.322478448150882	0	1
11.86654603825736	-6.4267125330507469	0	1
0.5	-7.322478448150882	0	1
0.5	-6.4267125330507469	0	1
11.86654603825736	-8.4682443632510171	0	1
11.86654603825736	-7.572478448150882	0	1
0.5	-8.4682443632510171	0	1
0.5	-7.572478448150882	0	1
11.86654603825736	-9.6140102783511523	0	1
11.86654603825736	-8.7182443632510171	0	1
0.5	-9.6140102783511523	0	1
0.5	-8.7182443632510171	0	1
11.86654603825736	-10.759776193451287	0	1
11.86654603825736	-9.8640102783511523	0	1
0.5	-10.759776193451287	0	1
0.5	-9.8640102783511523	0	1
11.86654603825736	-11.905542108551423	0	1
11.86654603825736	-11.009776193451287	0	1
0.5	-11.905542108551423	0	1
0.5	-11.009776193451287	0	1
11.86654603825736	-13.051308023651558	0	1
11.86654603825736	-12.155542108551423	0	1
0.5	-13.051308023651558	0	1
0.5	-12.155542108551423	0	1
11.86654603825736	-14.197073938751693	0	1
11.86654603825736	-13.301308023651558	0	1
0.5	-14.197073938751693	0	1
0.5	-13.301308023651558	0	1
11.86654603825736	-15.342839853851828	0	1
11.86654603825736	-14.447073938751693	0	1
0.5	-15.342839853851828	0	1
0.5	-14.447073938751693	0	1
11.86654603825736	-16.488605768951963	0	1
11.86654603825736	-15.592839853851828	0	1
0.5	-16.488605768951963	0	1
0.5	-15.592839853851828	0	1
33.657376513534501	15.592839853851817	0	1
33.657376513534501	16.488605768951953	0	1
22.290830475277144	15.592839853851817	0	1
22.290830475277144	16.488605768951953	0	1
33.657376513534501	14.447073938751682	0	1
33.657376513534501	15.342839853851817	0	1
22.290830475277144	14.447073938751682	0	1
22.290830475277144	15.342839853851817	0	1
33.657376513534501	13.301308023651547	0	1
33.657376513534501	14.197073938751682	0	1
22.290830475277144	13.301308023651547	0	1
22.290830475277144	14.197073938751682	0	1
33.657376513534501	12.155542108551412	0	1
33.657376513534501	13.051308023651547	0	1
22.290830475277144	12.155542108551412	0	1
22.290830475277144	13.051308023651547	0	1
33.657376513534501	11.009776193451277	0	1
33.657376513534501	11.905542108551412	0	1
22.290830475277144	11.009776193451277	0	1
22.290830475277144	11.905542108551412	0	1
33.657376513534501	9.8640102783511416	0	1
33.657376513534501	10.759776193451277	0	1
22.290830475277144	9.8640102783511416	0	1
22.290830475277144	10.759776193451277	0	1
33.657376513534501	8.7182443632510065	0	1
33.657376513534501	9.6140102783511416	0	1
22.290830475277144	8.7182443632510065	0	1
22.290830475277144	9.6140102783511416	0	1
33.657376513534501	7.5724784481508713	0	1
33.657376513534501	8.4682443632510065	0	1
22.290830475277144	7.5724784481508713	0	1
22.290830475277144	8.4682443632510065	0	1
33.657376513534501	6.4267125330507362	0	1
33.657376513534501	7.3224784481508713	0	1
22.290830475277144	6.4267125330507362	0	1
22.290830475277144	7.3224784481508713	0	1
33.657376513534501	5.2809466179506011	0	1
33.657376513534501	6.1767125330507362	0	1
22.290830475277144	5.2809466179506011	0	1
22.290830475277144	6.1767125330507362	0	1
33.657376513534501	4.1351807028504659	0	1
33.657376513534501	5.0309466179506011	0	1
22.290830475277144	4.1351807028504659	0	1
22.290830475277144	5.0309466179506011	0	1
33.657376513534501	2.9894147877503316	0	1
33.657376513534501	3.8851807028504659	0	1
22.290830475277144	2.9894147877503316	0	1
22.290830475277144	3.8851807028504659	0	1
33.657376513534501	1.8436488726501967	0	1
33.657376513534501	2.7394147877503312	0	1
22.290830475277144	1.8436488726501967	0	1
22.290830475277144	2.7394147877503312	0	1
33.657376513534501	0.69788295755006202	0	1
33.657376513534501	1.5936488726501967	0	1
22.290830475277144	0.69788295755006202	0	1
22.290830475277144	1.5936488726501967	0	1
33.657376513534501	-0.44788295755007262	0	1
33.657376513534501	0.44788295755006197	0	1
22.290830475277144	-0.44788295755007262	0	1
22.290830475277144	0.44788295755006197	0	1
33.657376513534501	-1.5936488726502074	0	1
33.657376513534501	-0.69788295755007268	0	1
22.290830475277144	-1.5936488726502074	0	1
22.290830475277144	-0.69788295755007268	0	1
33.657376513534501	-2.7394147877503419	0	1
33.657376513534501	-1.8436488726502074	0	1
22.290830475277144	-2.7394147877503419	0	1
22.290830475277144	-1.8436488726502074	0	1
33.657376513534501	-3.8851807028504766	0	1
33.657376513534501	-2.9894147877503423	0	1
22.290830475277144	-3.8851807028504766	0	1
22.290830475277144	-2.9894147877503423	0	1
33.657376513534501	-5.0309466179506117	0	1
33.657376513534501	-4.1351807028504766	0	1
22.290830475277144	-5.0309466179506117	0	1
22.290830475277144	-4.1351807028504766	0	1
33.657376513534501	-6.1767125330507469	0	1
33.657376513534501	-5.2809466179506117	0	1
22.290830475277144	-6.1767125330507469	0	1
22.290830475277144	-5.2809466179506117	0	1
33.657376513534501	-7.322478448150882	0	1
33.657376513534501	-6.4267125330507469	0	1
22.290830475277144	-7.322478448150882	0	1
22.290830475277144	-6.4267125330507469	0	1
33.657376513534501	-8.4682443632510171	0	1
33.657376513534501	-7.572478448150882	0	1
22.290830475277144	-8.4682443632510171	0	1
22.290830475277144	-7.572478448150882	0	1
33.657376513534501	-9.6140102783511523	0	1
33.657376513534501	-8.7182443632510171	0	1
22.290830475277144	-9.6140102783511523	0	1
22.290830475277144	-8.7182443632510171	0	1
33.657376513534501	-10.759776193451287	0	1
33.657376513534501	-9.8640102783511523	0	1
22.290830475277144	-10.759776193451287	0	1
22.290830475277144	-9.8640102783511523	0	1
33.657376513534501	-11.905542108551423	0	1
33.657376513534501	-11.009776193451287	0	1
22.290830475277144	-11.905542108551423	0	1
22.290830475277144	-11.009776193451287	0	1
33.657376513534501	-13.051308023651558	0	1
33.657376513534501	-12.155542108551423	0	1
22.290830475277144	-13.051308023651558	0	1
22.290830475277144	-12.155542108551423	0	1
33.657376513534501	-14.197073938751693	0	1
33.657376513534501	-13.301308023651558	0	1
22.290830475277144	-14.197073938751693	0	1
22.290830475277144	-13.301308023651558	0	1
33.657376513534501	-15.342839853851828	0	1
33.657376513534501	-14.447073938751693	0	1
22.290830475277144	-15.342839853851828	0	1
22.290830475277144	-14.447073938751693	0	1
33.657376513534501	-16.488605768951963	0	1
33.657376513534501	-15.592839853851828	0	1
22.290830475277144	-16.488605768951963	0	1
22.290830475277144	-15.592839853851828	0	1
[NumSegments] = 249
3	4	1.3602609030877992	0	0	1
5	6	1.3602609030877992	0	0	1
7	8	1.3602609030877992	0	0	1
2	9	1.3602609030877992	0	0	1
0	10	1.3602609030877992	0	0	1
11	9	0.45342030102926639	0	0	1
7	11	0.45342030102926639	0	0	1
6	7	0.45342030102926639	0	0	1
12	6	0.45342030102926639	0	0	1
4	12	0.45342030102926639	0	0	1
9	4	0.45342030102926639	0	0	1
13	10	0.45342030102926639	0	0	1
8	13	0.45342030102926639	0	0	1
5	8	0.45342030102926639	0	0	1
14	5	0.45342030102926639	0	0	1
3	14	0.45342030102926639	0	0	1
10	3	0.45342030102926639	0	0	1
15	16	1.3602609030877992	0	0	1
17	15	1.3602609030877992	0	0	1
18	17	1.3602609030877992	0	0	1
16	18	1.3602609030877992	0	0	1
19	20	1.3602609030877992	0	0	1
21	19	1.3602609030877992	0	0	1
22	21	1.3602609030877992	0	0	1
20	22	1.3602609030877992	0	0	1
23	24	1.3602609030877992	0	0	1
25	23	1.3602609030877992	0	0	1
26	25	1.3602609030877992	0	0	1
24	26	1.3602609030877992	0	0	1
27	28	1.3602609030877992	0	0	1
29	27	1.3602609030877992	0	0	1
30	29	1.3602609030877992	0	0	1
28	30	1.3602609030877992	0	0	1
31	32	1.3602609030877992	0	0	1
33	31	1.3602609030877992	0	0	1
34	33	1.3602609030877992	0	0	1
32	34	1.3602609030877992	0	0	1
35	36	1.3602609030877992	0	0	1
37	35	1.3602609030877992	0	0	1
38	37	1.3602609030877992	0	0	1
36	38	1.3602609030877992	0	0	1
39	40	1.3602609030877992	0	0	1
41	39	1.3602609030877992	0	0	1
42	41	1.3602609030877992	0	0	1
40	42	1.3602609030877992	0	0	1
43	44	1.3602609030877992	0	0	1
45	43	1.3602609030877992	0	0	1
46	45	1.3602609030877992	0	0	1
44	46	1.3602609030877992	0	0	1
47	48	1.3602609030877992	0	0	1
49	47	1.3602609030877992	0	0	1
50	49	1.3602609030877992	0	0	1
48	50	1.3602609030877992	0	0	1
51	52	1.3602609030877992	0	0	1
53	51	1.3602609030877992	0	0	1
54	53	1.3602609030877992	0	0	1
52	54	1.3602609030877992	0	0	1
55	56	1.3602609030877992	0	0	1
57	55	1.3602609030877992	0	0	1
58	57	1.3602609030877992	0	0	1
56	58	1.3602609030877992	0	0	1
59	60	1.3602609030877992	0	0	1
61	59	1.3602609030877992	0	0	1
62	61	1.3602609030877992	0	0	1
60	62	1.3602609030877992	0	0	1
63	64	1.3602609030877992	0	0	1
65	63	1.3602609030877992	0	0	1
66	65	1.3602609030877992	0	0	1
64	66	1.3602609030877992	0	0	1
67	68	1.3602609030877992	0	0	1
69	67	1.3602609030877992	0	0	1
70	69	1.3602609030877992	0	0	1
68	70	1.3602609030877992	0	0	1
71	72	1.3602609030877992	0	0	1
73	71	1.3602609030877992	0	0	1
74	73	1.3602609030877992	0	0	1
72	74	1.3602609030877992	0	0	1
75	76	1.3602609030877992	0	0	1
77	75	1.3602609030877992	0	0	1
78	77	1.3602609030877992	0	0	1
76	78	1.3602609030877992	0	0	1
79	80	1.3602609030877992	0	0	1
81	79	1.3602609030877992	0	0	1
82	81	1.3602609030877992	0	0	1
80	82	1.3602609030877992	0	0	1
83	84	1.3602609030877992	0	0	1
85	83	1.3602609030877992	0	0	1
86	85	1.3602609030877992	0	0	1
84	86	1.3602609030877992	0	0	1
87	88	1.3602609030877992	0	0	1
89	87	1.3602609030877992	0	0	1
90	89	1.3602609030877992	0	0	1
88	90	1.3602609030877992	0	0	1
91	92	1.3602609030877992	0	0	1
93	91	1.3602609030877992	0	0	1
94	93	1.3602609030877992	0	0	1
92	94	1.3602609030877992	0	0	1
95	96	1.3602609030877992	0	0	1
97	95	1.3602609030877992	0	0	1
98	97	1.3602609030877992	0	0	1
96	98	1.3602609030877992	0	0	1
99	100	1.3602609030877992	0	0	1
101	99	1.3602609030877992	0	0	1
102	101	1.3602609030877992	0	0	1
100	102	1.3602609030877992	0	0	1
103	104	1.3602609030877992	0	0	1
105	103	1.3602609030877992	0	0	1
106	105	1.3602609030877992	0	0	1
104	106	1.3602609030877992	0	0	1
107	108	1.3602609030877992	0	0	1
109	107	1.3602609030877992	0	0	1
110	109	1.3602609030877992	0	0	1
108	110	1.3602609030877992	0	0	1
111	112	1.3602609030877992	0	0	1
113	111	1.3602609030877992	0	0	1
114	113	1.3602609030877992	0	0	1
112	114	1.3602609030877992	0	0	1
115	116	1.3602609030877992	0	0	1
117	115	1.3602609030877992	0	0	1
118	117	1.3602609030877992	0	0	1
116	118	1.3602609030877992	0	0	1
119	120	1.3602609030877992	0	0	1
121	119	1.3602609030877992	0	0	1
122	121	1.3602609030877992	0	0	1
120	122	1.3602609030877992	0	0	1
123	124	1.3602609030877992	0	0	1
125	123	1.3602609030877992	0	0	1
126	125	1.3602609030877992	0	0	1
124	126	1.3602609030877992	0	0	1
127	128	1.3602609030877992	0	0	1
129	127	1.3602609030877992	0	0	1
130	129	1.3602609030877992	0	0	1
128	130	1.3602609030877992	0	0	1
131	132	1.3602609030877992	0	0	1
133	131	1.3602609030877992	0	0	1
134	133	1.3602609030877992	0	0	1
132	134	1.3602609030877992	0	0	1
135	136	1.3602609030877992	0	0	1
137	135	1.3602609030877992	0	0	1
138	137	1.3602609030877992	0	0	1
136	138	1.3602609030877992	0	0	1
139	140	1.3602609030877992	0	0	1
141	139	1.3602609030877992	0	0	1
142	141	1.3602609030877992	0	0	1
140	142	1.3602609030877992	0	0	1
143	144	1.3602609030877992	0	0	1
145	143	1.3602609030877992	0	0	1
146	145	1.3602609030877992	0	0	1
144	146	1.3602609030877992	0	0	1
147	148	1.3602609030877992	0	0	1
149	147	1.3602609030877992	0	0	1
150	149	1.3602609030877992	0	0	1
148	150	1.3602609030877992	0	0	1
151	152	1.3602609030877992	0	0	1
153	151	1.3602609030877992	0	0	1
154	153	1.3602609030877992	0	0	1
152	154	1.3602609030877992	0	0	1
155	156	1.3602609030877992	0	0	1
157	155	1.3602609030877992	0	0	1
158	157	1.3602609030877992	0	0	1
156	158	1.3602609030877992	0	0	1
159	160	1.3602609030877992	0	0	1
161	159	1.3602609030877992	0	0	1
162	161	1.3602609030877992	0	0	1
160	162	1.3602609030877992	0	0	1
163	164	1.3602609030877992	0	0	1
165	163	1.3602609030877992	0	0	1
166	165	1.3602609030877992	0	0	1
164	166	1.3602609030877992	0	0	1
167	168	1.3602609030877992	0	0	1
169	167	1.3602609030877992	0	0	1
170	169	1.3602609030877992	0	0	1
168	170	1.3602609030877992	0	0	1
171	172	1.3602609030877992	0	0	1
173	171	1.3602609030877992	0	0	1
174	173	1.3602609030877992	0	0	1
172	174	1.3602609030877992	0	0	1
175	176	1.3602609030877992	0	0	1
177	175	1.3602609030877992	0	0	1
178	177	1.3602609030877992	0	0	1
176	178	1.3602609030877992	0	0	1
179	180	1.3602609030877992	0	0	1
181	179	1.3602609030877992	0	0	1
182	181	1.3602609030877992	0	0	1
180	182	1.3602609030877992	0	0	1
183	184	1.3602609030877992	0	0	1
185	183	1.3602609030877992	0	0	1
186	185	1.3602609030877992	0	0	1
184	186	1.3602609030877992	0	0	1
187	188	1.3602609030877992	0	0	1
189	187	1.3602609030877992	0	0	1
190	189	1.3602609030877992	0	0	1
188	190	1.3602609030877992	0	0	1
191	192	1.3602609030877992	0	0	1
193	191	1.3602609030877992	0	0	1
194	193	1.3602609030877992	0	0	1
192	194	1.3602609030877992	0	0	1
195	196	1.3602609030877992	0	0	1
197	195	1.3602609030877992	0	0	1
198	197	1.3602609030877992	0	0	1
196	198	1.3602609030877992	0	0	1
199	200	1.3602609030877992	0	0	1
201	199	1.3602609030877992	0	0	1
202	201	1.3602609030877992	0	0	1
200	202	1.3602609030877992	0	0	1
203	204	1.3602609030877992	0	0	1
205	203	1.3602609030877992	0	0	1
206	205	1.3602609030877992	0	0	1
204	206	1.3602609030877992	0	0	1
207	208	1.3602609030877992	0	0	1
209	207	1.3602609030877992	0	0	1
210	209	1.3602609030877992	0	0	1
208	210	1.3602609030877992	0	0	1
211	212	1.3602609030877992	0	0	1
213	211	1.3602609030877992	0	0	1
214	213	1.3602609030877992	0	0	1
212	214	1.3602609030877992	0	0	1
215	216	1.3602609030877992	0	0	1
217	215	1.3602609030877992	0	0	1
218	217	1.3602609030877992	0	0	1
216	218	1.3602609030877992	0	0	1
219	220	1.3602609030877992	0	0	1
221	219	1.3602609030877992	0	0	1
222	221	1.3602609030877992	0	0	1
220	222	1.3602609030877992	0	0	1
223	224	1.3602609030877992	0	0	1
225	223	1.3602609030877992	0	0	1
226	225	1.3602609030877992	0	0	1
224	226	1.3602609030877992	0	0	1
227	228	1.3602609030877992	0	0	1
229	227	1.3602609030877992	0	0	1
230	229	1.3602609030877992	0	0	1
228	230	1.3602609030877992	0	0	1
231	232	1.3602609030877992	0	0	1
233	231	1.3602609030877992	0	0	1
234	233	1.3602609030877992	0	0	1
232	234	1.3602609030877992	0	0	1
235	236	1.3602609030877992	0	0	1
237	235	1.3602609030877992	0	0	1
238	237	1.3602609030877992	0	0	1
236	238	1.3602609030877992	0	0	1
239	240	1.3602609030877992	0	0	1
241	239	1.3602609030877992	0	0	1
242	241	1.3602609030877992	0	0	1
240	242	1.3602609030877992	0	0	1
243	244	1.3602609030877992	0	0	1
245	243	1.3602609030877992	0	0	1
246	245	1.3602609030877992	0	0	1
244	246	1.3602609030877992	0	0	1
[NumArcSegments] = 2
0	1	90	2	1	0	1	2
1	2	90	2	1	0	1	2
[NumHoles] = 0
[NumBlockLabels] = 63
22.040830475277144	0	1	-1	0	0	1	1	0
17.078688256767251	0	1	-1	0	0	1	1	0
12.11654603825736	0	1	-1	0	0	1	1	0
17.078688256767251	21.700747987461845	3	-1	0	0	1	1	0
17.078688256767251	-21.700747987461845	3	-1	0	0	1	1	0
6.1832730191286798	16.040722811401885	2	-1	1	0	1	1	0
6.1832730191286798	14.89495689630175	2	-1	1	0	1	1	0
6.1832730191286798	13.749190981201615	2	-1	1	0	1	1	0
6.1832730191286798	12.60342506610148	2	-1	1	0	1	1	0
6.1832730191286798	11.457659151001344	2	-1	1	0	1	1	0
6.1832730191286798	10.311893235901209	2	-1	1	0	1	1	0
6.1832730191286798	9.1661273208010741	2	-1	1	0	1	1	0
6.1832730191286798	8.0203614057009389	2	-1	1	0	1	1	0
6.1832730191286798	6.8745954906008038	2	-1	1	0	1	1	0
6.1832730191286798	5.7288295755006686	2	-1	1	0	1	1	0
6.1832730191286798	4.5830636604005335	2	-1	1	0	1	1	0
6.1832730191286798	3.4372977453003988	2	-1	1	0	1	1	0
6.1832730191286798	2.2915318302002641	2	-1	1	0	1	1	0
6.1832730191286798	1.1457659151001294	2	-1	1	0	1	1	0
6.1832730191286798	-5.3290705182007514e-015	2	-1	1	0	1	1	0
6.1832730191286798	-1.14576591510014	2	-1	1	0	1	1	0
6.1832730191286798	-2.2915318302002747	2	-1	1	0	1	1	0
6.1832730191286798	-3.4372977453004094	2	-1	1	0	1	1	0
6.1832730191286798	-4.5830636604005441	2	-1	1	0	1	1	0
6.1832730191286798	-5.7288295755006793	2	-1	1	0	1	1	0
6.1832730191286798	-6.8745954906008144	2	-1	1	0	1	1	0
6.1832730191286798	-8.0203614057009496	2	-1	1	0	1	1	0
6.1832730191286798	-9.1661273208010847	2	-1	1	0	1	1	0
6.1832730191286798	-10.31189323590122	2	-1	1	0	1	1	0
6.1832730191286798	-11.457659151001355	2	-1	1	0	1	1	0
6.1832730191286798	-12.60342506610149	2	-1	1	0	1	1	0
6.1832730191286798	-13.749190981201625	2	-1	1	0	1	1	0
6.1832730191286798	-14.89495689630176	2	-1	1	0	1	1	0
6.1832730191286798	-16.040722811401896	2	-1	1	0	1	1	0
27.974103494405824	16.040722811401885	2	-1	2	0	1	1	0
27.974103494405824	14.89495689630175	2	-1	2	0	1	1	0
27.974103494405824	13.749190981201615	2	-1	2	0	1	1	0
27.974103494405824	12.60342506610148	2	-1	2	0	1	1	0
27.974103494405824	11.457659151001344	2	-1	2	0	1	1	0
27.974103494405824	10.311893235901209	2	-1	2	0	1	1	0
27.974103494405824	9.1661273208010741	2	-1	2	0	1	1	0
27.974103494405824	8.0203614057009389	2	-1	2	0	1	1	0
27.974103494405824	6.8745954906008038	2	-1	2	0	1	1	0
27.974103494405824	5.7288295755006686	2	-1	2	0	1	1	0
27.974103494405824	4.5830636604005335	2	-1	2	0	1	1	0
27.974103494405824	3.4372977453003988	2	-1	2	0	1	1	0
27.974103494405824	2.2915318302002641	2	-1	2	0	1	1	0
27.974103494405824	1.1457659151001294	2	-1	2	0	1	1	0
27.974103494405824	-5.3290705182007514e-015	2	-1	2	0	1	1	0
27.974103494405824	-1.14576591510014	2	-1	2	0	1	1	0
27.974103494405824	-2.2915318302002747	2	-1	2	0	1	1	0
27.974103494405824	-3.4372977453004094	2	-1	2	0	1	1	0
27.974103494405824	-4.5830636604005441	2	-1	2	0	1	1	0
27.974103494405824	-5.7288295755006793	2	-1	2	0	1	1	0
27.974103494405824	-6.8745954906008144	2	-1	2	0	1	1	0
27.974103494405824	-8.0203614057009496	2	-1	2	0	1	1	0
27.974103494405824	-9.1661273208010847	2	-1	2	0	1	1	0
27.974103494405824	-10.31189323590122	2	-1	2	0	1	1	0
27.974103494405824	-11.457659151001355	2	-1	2	0	1	1	0
27.974103494405824	-12.60342506610149	2	-1	2	0	1	1	0
27.974103494405824	-13.749190981201625	2	-1	2	0	1	1	0
27.974103494405824	-14.89495689630176	2	-1	2	0	1	1	0
27.974103494405824	-16.040722811401896	2	-1	2	0	1	1	0
